LAMMPS (7 Sep 2016)
# Input file for lammps simulation using the Isotropic-anharmonic Shell Model
# proposed by Vielma and Schneider based on PBE Generalized Gradient
# Approximation(GGA) to Density Functional Theory(DFT):
# [Vielma Schneider 2013](http://dx.doi.org/10.1063/1.4827475)

# Vishal Boddu, June 2016

# ------------------------ INITIALIZATION ---------------------------------

units 		metal
dimension	3
boundary	p	p	s
atom_style	full

# ----------------------- ATOM DEFINITION ----------------------------

fix csinfo all property/atom i_CSID
read_data atom.data fix csinfo NULL CS-Info
  orthogonal box = (0 0 0) to (4.01 4.01 4.01)
  reading atoms ...
  10 atoms
  scanning bonds ...
  reading bonds ...
  5 bonds

#change_box all triclinic xy delta 0.0 xz delta 0.0 yz delta 0.0 remap

group cores type 1 3 5
5 atoms in group cores
group shells type 2 4 6
5 atoms in group shells

neighbor 0.5 bin
neigh_modify delay 10 check yes
comm_modify vel yes

# ------------------------ FORCE FIELDS ------------------------------

#kspace_style ewald 1.0e-6
#pair_style   born/coul/long/cs 8.0
pair_style   born/coul/wolf/cs 0.25 16.0 14.5
#pair_style   born/coul/wolf 0.25 16.0 14.5

#------------------------ A,  rho, sigma=0,     C,      D
pair_coeff	*	*	 0.0000	1.0000	0.000	0.0000	0.000
pair_coeff	2	6	7149.81	0.3019	0.000	0.0000	0.000
pair_coeff	4	6	7200.27	0.2303	0.000	0.0000	0.000
pair_coeff	6	6	3719.60	0.3408	0.000	597.17	0.000
pair_modify tail no

bond_style class2
bond_coeff	1	0.0	149.255	0.0		   0.0000000
bond_coeff	2	0.0	153.070	0.0		 20.83333333
bond_coeff	3	0.0	 18.465	0.0		208.33333333
change_box all triclinic xy delta 0.0132976391992 yz delta 0.0132976391992 xz delta 0.0132976391992 remap
  triclinic box = (0 0 -0.00060158) to (4.01 4.01 2.0056) with tilt (0 0 0)
  triclinic box = (0 0 -0.000802201) to (4.01 4.01 2.0058) with tilt (0.0132976 0 0)
  triclinic box = (0 0 -0.00100286) to (4.01 4.01 2.006) with tilt (0.0132976 0 0.0132976)
  triclinic box = (0 0 -0.00120356) to (4.01 4.01 2.0062) with tilt (0.0132976 0.0132976 0.0132976)
compute dr all displace/atom
reset_timestep 0
dump dump_positions all atom 1000 atomdump
dump dump_displ all custom 1000 displdump id type c_dr[1] c_dr[2] c_dr[3]
thermo 100
thermo_style custom step etotal pe ke fnorm ecoul elong ebond temp press pxx pyy pzz lx ly lz
compute CSequ all temp/cs cores shells
thermo_modify temp CSequ
fix EF all efield 0.000289 0.000289 0.000289
fix_modify EF energy yes
min_style quickmin
minimize 0.0 1e-04 30000 100000
  1 neighbor list requests
  update every 1 steps, delay 0 steps, check yes
Step TotEng PotEng KinEng Fnorm E_coul E_long E_bond Temp Press Pxx Pyy Pzz Lx Ly Lz
0   -113.30085   -113.30085            0    24.538466   -120.74773            0            0            0    -418200.9   -589559.35   -589500.83   -75542.517         4.01         4.01    2.0070059
Averages over the last 7 of 14 rows, steps 700 to 1296:
TotEng PotEng KinEng Fnorm E_coul E_long E_bond Temp Press Pxx Pyy Pzz Lx Ly Lz
-114.721 -114.721 3.7328e-05 0.0261712 -128.68 0 2.34507 0.0721955 -118474 -178240 -178278 1097.62 4.01 4.01 2.00701
Loop time of 1.80394 on 8 procs for 1296 steps with 10 atoms

Minimization stats:
  Stopping criterion = force tolerance
  Energy initial, next-to-last, final =
  Force two-norm initial, final = 24.5385 9.6677e-05
  Force max component initial, final = 12.8156 2.73029e-05
  Final line search alpha, max atom move = 0 0
  Iterations, force evaluations = 1296 1296

unfix EF
min_style fire
minimize 0.0 1e-05 60000 100000
Step TotEng PotEng KinEng Fnorm E_coul E_long E_bond Temp Press Pxx Pyy Pzz Lx Ly Lz
1296   -114.72236   -114.72236            0 0.0045574177   -128.69723            0    2.3524023            0   -116909.67   -175338.81   -175410.56    20.352039         4.01         4.01     2.031742
Loop time of 1.37224 on 8 procs for 923 steps with 10 atoms

Minimization stats:
  Stopping criterion = force tolerance
  Energy initial, next-to-last, final =
  Force two-norm initial, final = 0.00455742 9.54013e-06
  Force max component initial, final = 0.00148265 4.86666e-06
  Final line search alpha, max atom move = 0 0
  Iterations, force evaluations = 923 923

reset_timestep 0
variable la equal lx
variable lb equal ly
variable lc equal lz
fix AVE_LAT all ave/time 1 10000 20000 v_la v_lb v_lc file ave_lat
fix AVE_ATOM all ave/atom 1 10000 20000 c_dr[1] c_dr[2] c_dr[3]
dump core_displ all custom 20000 displcoredump id type f_AVE_ATOM[1] f_AVE_ATOM[2] f_AVE_ATOM[3]
variable TEMP equal temp
fix AVE_T all ave/time 1 10000 20000 v_TEMP file ave_temp
velocity all create 5 146981634 dist gaussian mom yes rot no bias yes temp CSequ
  1 neighbor list requests
  update every 1 steps, delay 10 steps, check yes
timestep 0.00001
min_style fire
minimize 0.0 1e-05 60000 10000
  1 neighbor list requests
  update every 1 steps, delay 0 steps, check yes
Step TotEng PotEng KinEng Fnorm E_coul E_long E_bond Temp Press Pxx Pyy Pzz Lx Ly Lz
0   -114.72236   -114.72236            0 9.5401262e-06   -128.69987            0    2.3533431            0   -116828.96   -175207.07   -175280.09    0.2875888         4.01         4.01    2.0317727
Loop time of 0.00759521 on 8 procs for 1 steps with 10 atoms

Minimization stats:
  Stopping criterion = force tolerance
  Energy initial, next-to-last, final =
  Force two-norm initial, final = 9.54013e-06 9.54013e-06
  Force max component initial, final = 4.86667e-06 4.86667e-06
  Final line search alpha, max atom move = 0 0
  Iterations, force evaluations = 1 1

reset_timestep 0
compute re all displace/atom
reset_timestep 0
dump dump_displace all custom 1000 displdump id type c_re[1] c_re[2] c_re[3]
variable STEP equal step
